test/data/enwl/networks/network_13/Feeder_2/Loads.dss
New Load.LOAD1 Phases=1 Bus1=109.1 kV=0.23 kW=1 PF=0.95
New Load.LOAD2 Phases=1 Bus1=116.2 kV=0.23 kW=1 PF=0.95
New Load.LOAD3 Phases=1 Bus1=120.3 kV=0.23 kW=1 PF=0.95
New Load.LOAD4 Phases=1 Bus1=135.1 kV=0.23 kW=1 PF=0.95
New Load.LOAD5 Phases=1 Bus1=150.2 kV=0.23 kW=1 PF=0.95
New Load.LOAD6 Phases=1 Bus1=164.3 kV=0.23 kW=1 PF=0.95
New Load.LOAD7 Phases=1 Bus1=179.1 kV=0.23 kW=1 PF=0.95
New Load.LOAD8 Phases=1 Bus1=198.2 kV=0.23 kW=1 PF=0.95
New Load.LOAD9 Phases=1 Bus1=209.3 kV=0.23 kW=1 PF=0.95
New Load.LOAD10 Phases=1 Bus1=229.1 kV=0.23 kW=1 PF=0.95
New Load.LOAD11 Phases=1 Bus1=384.3 kV=0.23 kW=1 PF=0.95
New Load.LOAD12 Phases=1 Bus1=414.2 kV=0.23 kW=1 PF=0.95
New Load.LOAD13 Phases=1 Bus1=423.2 kV=0.23 kW=1 PF=0.95
New Load.LOAD14 Phases=1 Bus1=431.1 kV=0.23 kW=1 PF=0.95
New Load.LOAD15 Phases=1 Bus1=432.1 kV=0.23 kW=1 PF=0.95
New Load.LOAD16 Phases=1 Bus1=704.2 kV=0.23 kW=1 PF=0.95
New Load.LOAD17 Phases=1 Bus1=818.2 kV=0.23 kW=1 PF=0.95
New Load.LOAD18 Phases=1 Bus1=836.1 kV=0.23 kW=1 PF=0.95
New Load.LOAD19 Phases=1 Bus1=869.3 kV=0.23 kW=1 PF=0.95
New Load.LOAD20 Phases=1 Bus1=872.2 kV=0.23 kW=1 PF=0.95
New Load.LOAD21 Phases=1 Bus1=884.3 kV=0.23 kW=1 PF=0.95
New Load.LOAD22 Phases=1 Bus1=888.1 kV=0.23 kW=1 PF=0.95
New Load.LOAD23 Phases=1 Bus1=1131.1 kV=0.23 kW=1 PF=0.95
New Load.LOAD24 Phases=1 Bus1=1175.2 kV=0.23 kW=1 PF=0.95
New Load.LOAD25 Phases=1 Bus1=1190.2 kV=0.23 kW=1 PF=0.95
New Load.LOAD26 Phases=1 Bus1=1216.1 kV=0.23 kW=1 PF=0.95
New Load.LOAD27 Phases=1 Bus1=1229.3 kV=0.23 kW=1 PF=0.95
New Load.LOAD28 Phases=1 Bus1=1257.3 kV=0.23 kW=1 PF=0.95
New Load.LOAD29 Phases=1 Bus1=1269.3 kV=0.23 kW=1 PF=0.95
New Load.LOAD30 Phases=1 Bus1=1334.2 kV=0.23 kW=1 PF=0.95
New Load.LOAD31 Phases=1 Bus1=1337.2 kV=0.23 kW=1 PF=0.95
New Load.LOAD32 Phases=1 Bus1=1341.3 kV=0.23 kW=1 PF=0.95
New Load.LOAD33 Phases=1 Bus1=1343.2 kV=0.23 kW=1 PF=0.95
New Load.LOAD34 Phases=1 Bus1=1345.1 kV=0.23 kW=1 PF=0.95
New Load.LOAD35 Phases=1 Bus1=1349.3 kV=0.23 kW=1 PF=0.95
New Load.LOAD36 Phases=1 Bus1=1373.2 kV=0.23 kW=1 PF=0.95
New Load.LOAD37 Phases=1 Bus1=1376.2 kV=0.23 kW=1 PF=0.95